<?xml version="1.0" encoding="UTF-8"?>

<!-- generated on 2025-05-04 16:50:07 by Eclipse SUMO netedit Version 1.22.0
<neteditConfiguration xmlns:xsi="http://www.w3.org/2001/XMLSchema-instance" xsi:noNamespaceSchemaLocation="http://sumo.dlr.de/xsd/neteditConfiguration.xsd">

    <input>
        <sumo-net-file value="C:\Users\dell\Downloads\-traffic-light-management-system-main\-traffic-light-management-system-main\New folder\New folder\simplenet.net.xml"/>
    </input>

    <output>
        <output-file value="C:\Users\dell\Downloads\-traffic-light-management-system-main\-traffic-light-management-system-main\New folder\New folder\simplenet.net.xml"/>
    </output>

    <processing>
        <geometry.min-radius.fix.railways value="false"/>
        <geometry.max-grade.fix value="false"/>
        <offset.disable-normalization value="true"/>
        <lefthand value="0"/>
    </processing>

    <junctions>
        <no-turnarounds value="true"/>
        <junctions.corner-detail value="5"/>
        <junctions.limit-turn-speed value="5.50"/>
        <rectangular-lane-cut value="0"/>
    </junctions>

    <pedestrian>
        <walkingareas value="0"/>
    </pedestrian>

</neteditConfiguration>
-->

<net version="1.20" junctionCornerDetail="5" limitTurnSpeed="5.50" xmlns:xsi="http://www.w3.org/2001/XMLSchema-instance" xsi:noNamespaceSchemaLocation="http://sumo.dlr.de/xsd/net_file.xsd">

    <location netOffset="0.00,0.00" convBoundary="-74.55,-69.39,72.97,71.97" origBoundary="0.00,0.00,400.00,400.00" projParameter="!"/>

    <edge id=":A0_0" function="internal">
        <lane id=":A0_0_0" index="0" speed="6.55" length="9.10" shape="7.24,1.57 4.77,1.93 3.00,2.99 1.94,4.75 1.58,7.22"/>
    </edge>
    <edge id=":A0_1" function="internal">
        <lane id=":A0_1_0" index="0" speed="13.89" length="14.45" shape="7.24,1.57 -7.21,1.61"/>
    </edge>
    <edge id=":A0_2" function="internal">
        <lane id=":A0_2_0" index="0" speed="7.98" length="14.23" shape="7.24,1.57 3.37,1.03 0.62,-0.61 -1.03,-3.37 -1.56,-7.24"/>
    </edge>
    <edge id=":A0_3" function="internal">
        <lane id=":A0_3_0" index="0" speed="6.49" length="9.03" shape="1.64,-7.22 1.98,-4.77 3.02,-3.02 4.77,-1.97 7.22,-1.63"/>
    </edge>
    <edge id=":A0_4" function="internal">
        <lane id=":A0_4_0" index="0" speed="13.89" length="14.44" shape="1.64,-7.22 1.58,7.22"/>
    </edge>
    <edge id=":A0_5" function="internal">
        <lane id=":A0_5_0" index="0" speed="8.03" length="14.24" shape="1.64,-7.22 1.07,-3.36 -0.60,-0.60 -3.36,1.05 -7.21,1.61"/>
    </edge>
    <edge id=":A0_6" function="internal">
        <lane id=":A0_6_0" index="0" speed="6.55" length="9.10" shape="-7.22,-1.59 -4.75,-1.95 -2.99,-3.01 -1.93,-4.77 -1.56,-7.24"/>
    </edge>
    <edge id=":A0_7" function="internal">
        <lane id=":A0_7_0" index="0" speed="13.89" length="14.44" shape="-7.22,-1.59 7.22,-1.63"/>
    </edge>
    <edge id=":A0_8" function="internal">
        <lane id=":A0_8_0" index="0" speed="7.99" length="14.21" shape="-7.22,-1.59 -3.36,-1.04 -0.61,0.61 1.04,3.36 1.58,7.22"/>
    </edge>
    <edge id=":A0_9" function="internal">
        <lane id=":A0_9_0" index="0" speed="6.50" length="9.03" shape="-1.62,7.21 -1.96,4.76 -3.01,3.01 -4.76,1.96 -7.21,1.61"/>
    </edge>
    <edge id=":A0_10" function="internal">
        <lane id=":A0_10_0" index="0" speed="13.89" length="14.45" shape="-1.62,7.21 -1.56,-7.24"/>
    </edge>
    <edge id=":A0_11" function="internal">
        <lane id=":A0_11_0" index="0" speed="8.03" length="14.24" shape="-1.62,7.21 -1.06,3.36 0.60,0.60 3.36,-1.07 7.22,-1.63"/>
    </edge>
    <edge id=":J10_0" function="internal">
        <lane id=":J10_0_0" index="0" speed="4.37" length="1.08" shape="-4.97,20.51 -4.98,20.19 -5.02,19.97 -5.12,19.77 -5.31,19.52"/>
    </edge>
    <edge id=":J11_0" function="internal">
        <lane id=":J11_0_0" index="0" speed="4.10" length="1.44" shape="-16.30,5.61 -16.56,5.35 -16.85,5.16 -17.18,5.04 -17.55,5.00"/>
    </edge>
    <edge id=":J15_0" function="internal">
        <lane id=":J15_0_0" index="0" speed="13.89" length="0.10" shape="-43.93,-4.95 -43.93,-4.95"/>
    </edge>
    <edge id=":J16_0" function="internal">
        <lane id=":J16_0_0" index="0" speed="4.19" length="1.27" shape="-18.91,-4.95 -18.59,-4.98 -18.29,-5.07 -18.02,-5.22 -17.77,-5.43"/>
    </edge>
    <edge id=":J17_0" function="internal">
        <lane id=":J17_0_0" index="0" speed="4.23" length="1.27" shape="-5.12,-18.23 -4.87,-18.50 -4.73,-18.73 -4.67,-18.98 -4.66,-19.35"/>
    </edge>
    <edge id=":J21_0" function="internal">
        <lane id=":J21_0_0" index="0" speed="4.16" length="1.32" shape="5.36,-19.37 5.39,-19.03 5.49,-18.72 5.65,-18.44 5.87,-18.19"/>
    </edge>
    <edge id=":J22_0" function="internal">
        <lane id=":J22_0_0" index="0" speed="13.89" length="0.30" shape="5.25,-53.39 5.25,-53.09"/>
    </edge>
    <edge id=":J23_0" function="internal">
        <lane id=":J23_0_0" index="0" speed="4.26" length="1.22" shape="19.63,-5.57 19.90,-5.34 20.11,-5.21 20.36,-5.16 20.72,-5.15"/>
    </edge>
    <edge id=":J3_0" function="internal">
        <lane id=":J3_0_0" index="0" speed="4.17" length="1.31" shape="5.59,18.61 5.37,18.86 5.21,19.14 5.12,19.44 5.08,19.77"/>
    </edge>
    <edge id=":J4_0" function="internal">
        <lane id=":J4_0_0" index="0" speed="13.89" length="0.30" shape="51.47,4.57 51.17,4.57"/>
    </edge>
    <edge id=":J5_0" function="internal">
        <lane id=":J5_0_0" index="0" speed="4.27" length="1.20" shape="20.99,4.87 20.64,4.88 20.40,4.94 20.19,5.06 19.92,5.30"/>
    </edge>
    <edge id=":J9_0" function="internal">
        <lane id=":J9_0_0" index="0" speed="13.89" length="0.30" shape="-4.96,45.45 -4.96,45.16"/>
    </edge>

    <edge id="-E0" from="J0" to="A0" priority="-1">
        <lane id="-E0_0" index="0" speed="13.89" length="61.56" shape="1.97,-68.78 1.64,-7.22"/>
    </edge>
    <edge id="-E1" from="J1" to="A0" priority="-1">
        <lane id="-E1_0" index="0" speed="13.89" length="67.34" shape="-74.55,-1.49 -7.22,-1.59"/>
    </edge>
    <edge id="A0A1" from="A0" to="A1" priority="-1">
        <lane id="A0A1_0" index="0" speed="13.89" length="64.76" shape="1.58,7.22 1.42,71.97"/>
    </edge>
    <edge id="A0B0" from="A0" to="B0" priority="-1">
        <lane id="A0B0_0" index="0" speed="13.89" length="65.16" shape="7.22,-1.63 72.38,-1.94"/>
    </edge>
    <edge id="A1A0" from="A1" to="A0" priority="-1">
        <lane id="A1A0_0" index="0" speed="13.89" length="64.76" shape="-1.78,71.97 -1.62,7.21"/>
    </edge>
    <edge id="B0A0" from="B0" to="A0" priority="-1">
        <lane id="B0A0_0" index="0" speed="13.89" length="65.16" shape="72.40,1.26 7.24,1.57"/>
    </edge>
    <edge id="E0" from="A0" to="J0" priority="-1">
        <lane id="E0_0" index="0" speed="13.89" length="61.56" shape="-1.56,-7.24 -1.23,-68.80"/>
    </edge>
    <edge id="E1" from="A0" to="J1" priority="-1">
        <lane id="E1_0" index="0" speed="13.89" length="67.34" shape="-7.21,1.61 -74.55,1.71"/>
    </edge>
    <edge id="E2" from="J2" to="J4" priority="-1">
        <lane id="E2_0" index="0" speed="13.89" length="20.78" shape="72.25,4.47 51.47,4.57"/>
    </edge>
    <edge id="E2.18" from="J4" to="J5" priority="-1">
        <lane id="E2.18_0" index="0" speed="13.89" length="30.18" shape="51.17,4.57 20.99,4.87"/>
    </edge>
    <edge id="E2.44" from="J5" to="J3" priority="-1">
        <lane id="E2.44_0" index="0" speed="13.89" length="19.56" shape="19.92,5.30 5.59,18.61"/>
    </edge>
    <edge id="E3" from="J3" to="J6" priority="-1">
        <lane id="E3_0" index="0" speed="13.89" length="52.05" shape="5.08,19.77 4.79,71.82"/>
    </edge>
    <edge id="E4" from="J7" to="J9" priority="-1">
        <lane id="E4_0" index="0" speed="13.89" length="26.44" shape="-5.15,71.89 -4.96,45.45"/>
    </edge>
    <edge id="E4.26" from="J9" to="J10" priority="-1">
        <lane id="E4.26_0" index="0" speed="13.89" length="24.64" shape="-4.96,45.16 -4.97,20.51"/>
    </edge>
    <edge id="E4.39" from="J10" to="J11" priority="-1">
        <lane id="E4.39_0" index="0" speed="13.89" length="17.72" shape="-5.31,19.52 -16.30,5.61"/>
    </edge>
    <edge id="E5" from="J11" to="J12" priority="-1">
        <lane id="E5_0" index="0" speed="13.89" length="56.95" shape="-17.55,5.00 -74.50,4.82"/>
    </edge>
    <edge id="E6" from="J13" to="J15" priority="-1">
        <lane id="E6_0" index="0" speed="13.89" length="30.46" shape="-74.39,-4.95 -43.93,-4.95"/>
    </edge>
    <edge id="E6.12" from="J15" to="J16" priority="-1">
        <lane id="E6.12_0" index="0" speed="13.89" length="25.02" shape="-43.93,-4.95 -18.91,-4.95"/>
    </edge>
    <edge id="E6.39" from="J16" to="J17" priority="-1">
        <lane id="E6.39_0" index="0" speed="13.89" length="18.00" shape="-17.77,-5.43 -5.12,-18.23"/>
    </edge>
    <edge id="E7" from="J17" to="J18" priority="-1">
        <lane id="E7_0" index="0" speed="13.89" length="49.84" shape="-4.66,-19.35 -4.66,-69.19"/>
    </edge>
    <edge id="E8" from="J19" to="J22" priority="-1">
        <lane id="E8_0" index="0" speed="13.89" length="16.00" shape="5.30,-69.39 5.25,-53.39"/>
    </edge>
    <edge id="E8.15" from="J22" to="J21" priority="-1">
        <lane id="E8.15_0" index="0" speed="13.89" length="33.73" shape="5.25,-53.09 5.36,-19.37"/>
    </edge>
    <edge id="E8.35" from="J21" to="J23" priority="-1">
        <lane id="E8.35_0" index="0" speed="13.89" length="18.67" shape="5.87,-18.19 19.63,-5.57"/>
    </edge>
    <edge id="E9" from="J23" to="J24" priority="-1">
        <lane id="E9_0" index="0" speed="13.89" length="52.24" shape="20.72,-5.15 72.96,-5.44"/>
    </edge>

    <tlLogic id="A0" type="static" programID="0" offset="0">
        <phase duration="42" state="rrrrrrGGGrrr"/>
        <phase duration="3"  state="rrrrrryyyrrr"/>
        <phase duration="42" state="GGGrrrrrrrrr"/>
        <phase duration="3"  state="yyyrrrrrrrrr"/>
        <phase duration="42" state="rrrGGGrrrrrr"/>
        <phase duration="3"  state="rrryyyrrrrrr"/>
        <phase duration="42" state="rrrrrrrrrGGG"/>
        <phase duration="3"  state="rrrrrrrrryyy"/>
    </tlLogic>

    <junction id="A0" type="traffic_light" x="0.00" y="0.00" incLanes="B0A0_0 -E0_0 -E1_0 A1A0_0" intLanes=":A0_0_0 :A0_1_0 :A0_2_0 :A0_3_0 :A0_4_0 :A0_5_0 :A0_6_0 :A0_7_0 :A0_8_0 :A0_9_0 :A0_10_0 :A0_11_0" shape="7.25,3.17 7.22,-3.23 5.00,-3.67 4.22,-4.22 3.67,-4.99 3.34,-5.99 3.24,-7.22 -3.16,-7.25 -3.62,-5.00 -4.19,-4.21 -4.97,-3.64 -5.98,-3.30 -7.22,-3.19 -7.21,3.21 -4.99,3.65 -4.21,4.21 -3.66,4.98 -3.33,5.98 -3.22,7.20 3.18,7.22 3.64,4.98 4.20,4.19 4.99,3.62 6.01,3.28">
        <request index="0"  response="000000010000" foes="000100010000" cont="0"/>
        <request index="1"  response="111000110000" foes="111100110000" cont="0"/>
        <request index="2"  response="110011110000" foes="110111110000" cont="0"/>
        <request index="3"  response="000000000000" foes="100010000000" cont="0"/>
        <request index="4"  response="000000000000" foes="100110000111" cont="0"/>
        <request index="5"  response="111000000000" foes="111110000110" cont="0"/>
        <request index="6"  response="010000000000" foes="010000000100" cont="0"/>
        <request index="7"  response="110000111000" foes="110000111100" cont="0"/>
        <request index="8"  response="110000110111" foes="110000110111" cont="0"/>
        <request index="9"  response="000000000000" foes="000000100010" cont="0"/>
        <request index="10" response="000000000000" foes="000111100110" cont="0"/>
        <request index="11" response="000000011000" foes="000110111110" cont="0"/>
    </junction>
    <junction id="A1" type="dead_end" x="-0.18" y="71.97" incLanes="A0A1_0" intLanes="" shape="-0.18,71.97 3.02,71.98 -0.18,71.97"/>
    <junction id="B0" type="dead_end" x="72.39" y="-0.34" incLanes="A0B0_0" intLanes="" shape="72.39,-0.34 72.37,-3.54 72.39,-0.34"/>
    <junction id="J0" type="dead_end" x="0.37" y="-68.79" incLanes="E0_0" intLanes="" shape="0.37,-68.79 -2.83,-68.81 0.37,-68.79"/>
    <junction id="J1" type="dead_end" x="-74.55" y="0.11" incLanes="E1_0" intLanes="" shape="-74.55,0.11 -74.55,3.31 -74.55,0.11"/>
    <junction id="J10" type="priority" x="-3.37" y="19.40" incLanes="E4.26_0" intLanes=":J10_0_0" shape="-6.57,20.51 -3.37,20.51 -3.40,19.71 -3.47,19.43 -3.59,19.18 -3.78,18.89 -4.06,18.53">
        <request index="0" response="0" foes="0" cont="0"/>
    </junction>
    <junction id="J11" type="priority" x="-16.00" y="3.41" incLanes="E4.39_0" intLanes=":J11_0_0" shape="-17.55,6.60 -15.04,4.62 -15.75,3.95 -16.15,3.71 -16.58,3.54 -17.05,3.44 -17.54,3.40">
        <request index="0" response="0" foes="0" cont="0"/>
    </junction>
    <junction id="J12" type="dead_end" x="-74.49" y="3.22" incLanes="E5_0" intLanes="" shape="-74.50,6.42 -74.49,3.22"/>
    <junction id="J13" type="dead_end" x="-74.39" y="-3.35" incLanes="" intLanes="" shape="-74.39,-3.35 -74.39,-6.55"/>
    <junction id="J15" type="priority" x="-43.93" y="-3.35" incLanes="E6_0" intLanes=":J15_0_0" shape="-43.93,-3.35 -43.93,-6.55 -43.93,-3.35">
        <request index="0" response="0" foes="0" cont="0"/>
    </junction>
    <junction id="J16" type="priority" x="-17.57" y="-3.35" incLanes="E6.12_0" intLanes=":J16_0_0" shape="-16.63,-4.30 -18.91,-6.55 -18.91,-3.35 -18.06,-3.46 -17.67,-3.59 -17.30,-3.77 -16.95,-4.01">
        <request index="0" response="0" foes="0" cont="0"/>
    </junction>
    <junction id="J17" type="priority" x="-3.06" y="-18.04" incLanes="E6.39_0" intLanes=":J17_0_0" shape="-3.06,-19.35 -6.26,-19.35 -3.98,-17.11 -3.36,-17.80 -3.20,-18.10 -3.11,-18.42 -3.07,-18.83">
        <request index="0" response="0" foes="0" cont="0"/>
    </junction>
    <junction id="J18" type="dead_end" x="-3.06" y="-69.19" incLanes="E7_0" intLanes="" shape="-6.26,-69.19 -3.06,-69.19"/>
    <junction id="J19" type="dead_end" x="3.70" y="-69.39" incLanes="" intLanes="" shape="3.70,-69.39 6.90,-69.38"/>
    <junction id="J2" type="dead_end" x="72.24" y="2.87" incLanes="" intLanes="" shape="72.24,2.87 72.26,6.07"/>
    <junction id="J21" type="priority" x="3.76" y="-17.96" incLanes="E8.15_0" intLanes=":J21_0_0" shape="4.79,-17.01 6.96,-19.37 3.76,-19.36 3.87,-18.48 4.02,-18.07 4.22,-17.69 4.48,-17.34">
        <request index="0" response="0" foes="0" cont="0"/>
    </junction>
    <junction id="J22" type="priority" x="3.65" y="-53.24" incLanes="E8_0" intLanes=":J22_0_0" shape="3.65,-53.09 6.85,-53.10 6.85,-53.38 3.65,-53.39">
        <request index="0" response="0" foes="0" cont="0"/>
    </junction>
    <junction id="J23" type="priority" x="19.47" y="-3.54" incLanes="E8.35_0" intLanes=":J23_0_0" shape="20.73,-3.55 20.71,-6.75 18.54,-4.39 19.23,-3.82 19.52,-3.67 19.83,-3.59 20.22,-3.55">
        <request index="0" response="0" foes="0" cont="0"/>
    </junction>
    <junction id="J24" type="dead_end" x="72.97" y="-3.84" incLanes="E9_0" intLanes="" shape="72.95,-7.04 72.97,-3.84"/>
    <junction id="J3" type="priority" x="3.49" y="18.38" incLanes="E2.44_0" intLanes=":J3_0_0" shape="6.68,19.78 4.50,17.44 3.94,18.12 3.74,18.49 3.60,18.89 3.51,19.31 3.48,19.76">
        <request index="0" response="0" foes="0" cont="0"/>
    </junction>
    <junction id="J4" type="priority" x="51.31" y="2.97" incLanes="E2_0" intLanes=":J4_0_0" shape="51.48,6.17 51.46,2.97 51.16,2.97 51.19,6.17">
        <request index="0" response="0" foes="0" cont="0"/>
    </junction>
    <junction id="J5" type="priority" x="19.74" y="3.28" incLanes="E2.18_0" intLanes=":J5_0_0" shape="21.01,6.47 20.98,3.27 20.10,3.32 19.79,3.40 19.51,3.55 19.20,3.79 18.83,4.12">
        <request index="0" response="0" foes="0" cont="0"/>
    </junction>
    <junction id="J6" type="dead_end" x="3.19" y="71.81" incLanes="E3_0" intLanes="" shape="6.39,71.83 3.19,71.81"/>
    <junction id="J7" type="dead_end" x="-3.55" y="71.90" incLanes="" intLanes="" shape="-3.55,71.90 -6.75,71.88"/>
    <junction id="J9" type="priority" x="-3.36" y="45.31" incLanes="E4_0" intLanes=":J9_0_0" shape="-3.36,45.16 -6.56,45.16 -6.56,45.44 -3.36,45.46">
        <request index="0" response="0" foes="0" cont="0"/>
    </junction>

    <connection from="-E0" to="A0B0" fromLane="0" toLane="0" via=":A0_3_0" tl="A0" linkIndex="3" dir="r" state="O"/>
    <connection from="-E0" to="A0A1" fromLane="0" toLane="0" via=":A0_4_0" tl="A0" linkIndex="4" dir="s" state="O"/>
    <connection from="-E0" to="E1" fromLane="0" toLane="0" via=":A0_5_0" tl="A0" linkIndex="5" dir="l" state="o"/>
    <connection from="-E1" to="E0" fromLane="0" toLane="0" via=":A0_6_0" tl="A0" linkIndex="6" dir="r" state="o"/>
    <connection from="-E1" to="A0B0" fromLane="0" toLane="0" via=":A0_7_0" tl="A0" linkIndex="7" dir="s" state="o"/>
    <connection from="-E1" to="A0A1" fromLane="0" toLane="0" via=":A0_8_0" tl="A0" linkIndex="8" dir="l" state="o"/>
    <connection from="A1A0" to="E1" fromLane="0" toLane="0" via=":A0_9_0" tl="A0" linkIndex="9" dir="r" state="O"/>
    <connection from="A1A0" to="E0" fromLane="0" toLane="0" via=":A0_10_0" tl="A0" linkIndex="10" dir="s" state="O"/>
    <connection from="A1A0" to="A0B0" fromLane="0" toLane="0" via=":A0_11_0" tl="A0" linkIndex="11" dir="l" state="o"/>
    <connection from="B0A0" to="A0A1" fromLane="0" toLane="0" via=":A0_0_0" tl="A0" linkIndex="0" dir="r" state="o"/>
    <connection from="B0A0" to="E1" fromLane="0" toLane="0" via=":A0_1_0" tl="A0" linkIndex="1" dir="s" state="o"/>
    <connection from="B0A0" to="E0" fromLane="0" toLane="0" via=":A0_2_0" tl="A0" linkIndex="2" dir="l" state="o"/>
    <connection from="E2" to="E2.18" fromLane="0" toLane="0" via=":J4_0_0" dir="s" state="M"/>
    <connection from="E2.18" to="E2.44" fromLane="0" toLane="0" via=":J5_0_0" dir="s" state="M"/>
    <connection from="E2.44" to="E3" fromLane="0" toLane="0" via=":J3_0_0" dir="r" state="M"/>
    <connection from="E4" to="E4.26" fromLane="0" toLane="0" via=":J9_0_0" dir="s" state="M"/>
    <connection from="E4.26" to="E4.39" fromLane="0" toLane="0" via=":J10_0_0" dir="s" state="M"/>
    <connection from="E4.39" to="E5" fromLane="0" toLane="0" via=":J11_0_0" dir="r" state="M"/>
    <connection from="E6" to="E6.12" fromLane="0" toLane="0" via=":J15_0_0" dir="s" state="M"/>
    <connection from="E6.12" to="E6.39" fromLane="0" toLane="0" via=":J16_0_0" dir="r" state="M"/>
    <connection from="E6.39" to="E7" fromLane="0" toLane="0" via=":J17_0_0" dir="r" state="M"/>
    <connection from="E8" to="E8.15" fromLane="0" toLane="0" via=":J22_0_0" dir="s" state="M"/>
    <connection from="E8.15" to="E8.35" fromLane="0" toLane="0" via=":J21_0_0" dir="r" state="M"/>
    <connection from="E8.35" to="E9" fromLane="0" toLane="0" via=":J23_0_0" dir="s" state="M"/>

    <connection from=":A0_0" to="A0A1" fromLane="0" toLane="0" dir="r" state="M"/>
    <connection from=":A0_1" to="E1" fromLane="0" toLane="0" dir="s" state="M"/>
    <connection from=":A0_2" to="E0" fromLane="0" toLane="0" dir="l" state="M"/>
    <connection from=":A0_3" to="A0B0" fromLane="0" toLane="0" dir="r" state="M"/>
    <connection from=":A0_4" to="A0A1" fromLane="0" toLane="0" dir="s" state="M"/>
    <connection from=":A0_5" to="E1" fromLane="0" toLane="0" dir="l" state="M"/>
    <connection from=":A0_6" to="E0" fromLane="0" toLane="0" dir="r" state="M"/>
    <connection from=":A0_7" to="A0B0" fromLane="0" toLane="0" dir="s" state="M"/>
    <connection from=":A0_8" to="A0A1" fromLane="0" toLane="0" dir="l" state="M"/>
    <connection from=":A0_9" to="E1" fromLane="0" toLane="0" dir="r" state="M"/>
    <connection from=":A0_10" to="E0" fromLane="0" toLane="0" dir="s" state="M"/>
    <connection from=":A0_11" to="A0B0" fromLane="0" toLane="0" dir="l" state="M"/>
    <connection from=":J10_0" to="E4.39" fromLane="0" toLane="0" dir="s" state="M"/>
    <connection from=":J11_0" to="E5" fromLane="0" toLane="0" dir="r" state="M"/>
    <connection from=":J15_0" to="E6.12" fromLane="0" toLane="0" dir="s" state="M"/>
    <connection from=":J16_0" to="E6.39" fromLane="0" toLane="0" dir="r" state="M"/>
    <connection from=":J17_0" to="E7" fromLane="0" toLane="0" dir="r" state="M"/>
    <connection from=":J21_0" to="E8.35" fromLane="0" toLane="0" dir="r" state="M"/>
    <connection from=":J22_0" to="E8.15" fromLane="0" toLane="0" dir="s" state="M"/>
    <connection from=":J23_0" to="E9" fromLane="0" toLane="0" dir="s" state="M"/>
    <connection from=":J3_0" to="E3" fromLane="0" toLane="0" dir="r" state="M"/>
    <connection from=":J4_0" to="E2.18" fromLane="0" toLane="0" dir="s" state="M"/>
    <connection from=":J5_0" to="E2.44" fromLane="0" toLane="0" dir="s" state="M"/>
    <connection from=":J9_0" to="E4.26" fromLane="0" toLane="0" dir="s" state="M"/>

</net>
